Compound
 OpenBabel01172315523D

123127  0  0  1  0  0  0  0  0999 V2000
    6.0920   13.7000    1.6940 C   0  0  0  0  0  0  0  0  0  0  0  0
    5.0600   14.8910    1.7710 C   0  0  2  0  0  3  0  0  0  0  0  0
    3.7680   14.2300    2.2410 C   0  0  1  0  0  3  0  0  0  0  0  0
    2.3520   15.2670    1.7890 S   0  0  0  0  0  0  0  0  0  0  0  0
    3.2660   15.6470    0.3090 C   0  0  0  0  0  3  0  0  0  0  0  0
    4.6330   15.5010    0.4480 C   0  0  0  0  0  3  0  0  0  0  0  0
    3.6940   12.9800    1.3900 C   0  0  1  0  0  3  0  0  0  0  0  0
    5.1210   12.6160    1.0380 C   0  0  2  0  0  3  0  0  0  0  0  0
    5.1320   11.1260    0.8610 C   0  0  0  0  0  3  0  0  0  0  0  0
    3.8860   10.3830    1.3720 C   0  0  1  0  0  3  0  0  0  0  0  0
    2.7810   11.6190    2.1450 S   0  0  0  0  0  0  0  0  0  0  0  0
    2.7800   15.9140   -0.6200 H   0  0  0  0  0  0  0  0  0  0  0  0
    5.3000   15.7670   -0.3550 H   0  0  0  0  0  0  0  0  0  0  0  0
    5.4080   10.8770   -0.1530 H   0  0  0  0  0  0  0  0  0  0  0  0
    1.6820    9.1400    0.7470 C   0  0  0  0  0  3  0  0  0  0  0  0
    3.1100    9.5380    0.2920 C   0  0  1  0  0  3  0  0  0  0  0  0
    3.8420    8.2410   -0.1150 C   0  0  1  0  0  3  0  0  0  0  0  0
    3.2780    7.6510   -1.3160 N   0  0  0  0  0  2  0  0  0  0  0  0
    3.7300    5.9310   -1.2990 S   0  0  0  0  0  0  0  0  0  0  0  0
    4.2870    5.9600    0.3900 N   0  0  0  0  0  2  0  0  0  0  0  0
    3.7790    7.1820    0.9780 C   0  0  2  0  0  3  0  0  0  0  0  0
    2.3320    6.9560    1.4410 C   0  0  0  0  0  3  0  0  0  0  0  0
    1.7340    8.2140    1.8810 N   0  0  0  0  0  2  0  0  0  0  0  0
    1.0920    8.6850   -0.0890 H   0  0  0  0  0  0  0  0  0  0  0  0
    2.3000    6.2100    2.2660 H   0  0  0  0  0  0  0  0  0  0  0  0
    6.5940   13.2770    3.1750 C   0  0  0  0  0  0  0  0  0  0  0  0
    5.6520   12.4610    4.1500 C   0  0  0  0  0  0  0  0  0  0  0  0
    5.8270   12.6840    5.6940 C   0  0  0  0  0  0  0  0  0  0  0  0
    6.9650   12.1350    6.6180 C   0  0  0  0  0  0  0  0  0  0  0  0
    6.6600   10.9240    7.5910 C   0  0  0  0  0  0  0  0  0  0  0  0
    7.2380    9.4890    7.3760 C   0  0  0  0  0  0  0  0  0  0  0  0
    8.7610    9.5360    7.0950 C   0  0  0  0  0  0  0  0  0  0  0  0
    8.9050    9.6560    5.5890 C   0  0  0  0  0  0  0  0  0  0  0  0
   10.2180   10.1560    5.0260 C   0  0  0  0  0  0  0  0  0  0  0  0
   10.0440   10.6140    3.5520 C   0  0  0  0  0  0  0  0  0  0  0  0
    9.5540    9.5710    2.5130 C   0  0  0  0  0  0  0  0  0  0  0  0
    8.0600    9.1300    2.5790 C   0  0  0  0  0  0  0  0  0  0  0  0
    7.7330    7.9830    1.6070 C   0  0  0  0  0  0  0  0  0  0  0  0
    7.1080    8.4210    0.2760 C   0  0  0  0  0  0  0  0  0  0  0  0
    7.9000    9.4300   -0.5640 C   0  0  0  0  0  0  0  0  0  0  0  0
    9.2160    8.8470   -1.0670 C   0  0  0  0  0  0  0  0  0  0  0  0
    6.9090   14.2190    3.6740 H   0  0  0  0  0  0  0  0  0  0  0  0
    7.5040   12.6540    3.0850 H   0  0  0  0  0  0  0  0  0  0  0  0
    4.6440   12.8670    4.0190 H   0  0  0  0  0  0  0  0  0  0  0  0
    5.5930   11.3870    3.8740 H   0  0  0  0  0  0  0  0  0  0  0  0
    5.8610   13.7940    5.7800 H   0  0  0  0  0  0  0  0  0  0  0  0
    4.8770   12.3850    6.1900 H   0  0  0  0  0  0  0  0  0  0  0  0
    8.0030   12.2380    6.2400 H   0  0  0  0  0  0  0  0  0  0  0  0
    6.9590   12.9450    7.3850 H   0  0  0  0  0  0  0  0  0  0  0  0
    7.1440   11.2020    8.5570 H   0  0  0  0  0  0  0  0  0  0  0  0
    5.5770   10.8580    7.8190 H   0  0  0  0  0  0  0  0  0  0  0  0
    6.6990    8.9130    6.5980 H   0  0  0  0  0  0  0  0  0  0  0  0
    7.0780    8.9530    8.3350 H   0  0  0  0  0  0  0  0  0  0  0  0
    9.2170   10.3770    7.6600 H   0  0  0  0  0  0  0  0  0  0  0  0
    9.2740    8.5970    7.4090 H   0  0  0  0  0  0  0  0  0  0  0  0
    8.7490    8.6220    5.2440 H   0  0  0  0  0  0  0  0  0  0  0  0
    8.1240   10.3360    5.2010 H   0  0  0  0  0  0  0  0  0  0  0  0
   10.5260   11.0620    5.5940 H   0  0  0  0  0  0  0  0  0  0  0  0
   11.0080    9.3840    5.1410 H   0  0  0  0  0  0  0  0  0  0  0  0
    9.3670   11.4910    3.5150 H   0  0  0  0  0  0  0  0  0  0  0  0
   11.0440   10.9710    3.2260 H   0  0  0  0  0  0  0  0  0  0  0  0
   10.2180    8.6850    2.5850 H   0  0  0  0  0  0  0  0  0  0  0  0
    9.7090   10.0430    1.5260 H   0  0  0  0  0  0  0  0  0  0  0  0
    7.8250    8.6800    3.5310 H   0  0  0  0  0  0  0  0  0  0  0  0
    7.3490    9.9820    2.4870 H   0  0  0  0  0  0  0  0  0  0  0  0
    6.9190    7.3670    2.0730 H   0  0  0  0  0  0  0  0  0  0  0  0
    8.5950    7.3060    1.4810 H   0  0  0  0  0  0  0  0  0  0  0  0
    6.8740    7.5200   -0.3260 H   0  0  0  0  0  0  0  0  0  0  0  0
    6.1630    8.8910    0.5450 H   0  0  0  0  0  0  0  0  0  0  0  0
    7.2810    9.6980   -1.4360 H   0  0  0  0  0  0  0  0  0  0  0  0
    8.0760   10.3570    0.0230 H   0  0  0  0  0  0  0  0  0  0  0  0
    9.0100    7.9450   -1.6790 H   0  0  0  0  0  0  0  0  0  0  0  0
    9.7310    9.6070   -1.6880 H   0  0  0  0  0  0  0  0  0  0  0  0
    9.8720    8.5610   -0.2220 H   0  0  0  0  0  0  0  0  0  0  0  0
    7.4070   14.1640    0.8210 C   0  0  0  0  0  0  0  0  0  0  0  0
    7.9170   15.6690    1.0590 C   0  0  0  0  0  0  0  0  0  0  0  0
    9.4020   16.2870    0.9610 C   0  0  0  0  0  0  0  0  0  0  0  0
   10.3510   16.5100   -0.2950 C   0  0  0  0  0  0  0  0  0  0  0  0
   11.5540   17.5090    0.0600 C   0  0  0  0  0  0  0  0  0  0  0  0
   12.7480   17.6850   -0.9640 C   0  0  0  0  0  0  0  0  0  0  0  0
   13.8470   18.7330   -0.5080 C   0  0  0  0  0  0  0  0  0  0  0  0
   15.1880   18.6950   -1.3220 C   0  0  0  0  0  0  0  0  0  0  0  0
   16.2660   19.7120   -0.8240 C   0  0  0  0  0  0  0  0  0  0  0  0
   17.6950   19.7020   -1.4670 C   0  0  0  0  0  0  0  0  0  0  0  0
   18.5140   18.4050   -1.2580 C   0  0  0  0  0  0  0  0  0  0  0  0
   18.1660   17.3510   -2.3270 C   0  0  0  0  0  0  0  0  0  0  0  0
   18.3220   15.8920   -1.8390 C   0  0  0  0  0  0  0  0  0  0  0  0
   19.7230   15.2380   -1.8100 C   0  0  0  0  0  0  0  0  0  0  0  0
   20.7370   15.7510   -0.7860 C   0  0  0  0  0  0  0  0  0  0  0  0
   20.2740   15.5840    0.6610 C   0  0  0  0  0  0  0  0  0  0  0  0
    8.2230   13.4400    1.0210 H   0  0  0  0  0  0  0  0  0  0  0  0
    7.1960   14.0840   -0.2690 H   0  0  0  0  0  0  0  0  0  0  0  0
    7.2600   16.3410    0.4700 H   0  0  0  0  0  0  0  0  0  0  0  0
    7.6700   15.8660    2.1200 H   0  0  0  0  0  0  0  0  0  0  0  0
    9.2330   17.3270    1.3230 H   0  0  0  0  0  0  0  0  0  0  0  0
   10.0150   15.7750    1.7280 H   0  0  0  0  0  0  0  0  0  0  0  0
   10.7540   15.5270   -0.6160 H   0  0  0  0  0  0  0  0  0  0  0  0
    9.7890   16.9560   -1.1450 H   0  0  0  0  0  0  0  0  0  0  0  0
   11.1160   18.5140    0.2490 H   0  0  0  0  0  0  0  0  0  0  0  0
   12.0200   17.1630    1.0070 H   0  0  0  0  0  0  0  0  0  0  0  0
   12.3710   17.9950   -1.9620 H   0  0  0  0  0  0  0  0  0  0  0  0
   13.2380   16.6950   -1.0670 H   0  0  0  0  0  0  0  0  0  0  0  0
   13.4160   19.7590   -0.5470 H   0  0  0  0  0  0  0  0  0  0  0  0
   14.1220   18.5200    0.5470 H   0  0  0  0  0  0  0  0  0  0  0  0
   15.5790   17.6710   -1.1870 H   0  0  0  0  0  0  0  0  0  0  0  0
   14.9920   18.8860   -2.4040 H   0  0  0  0  0  0  0  0  0  0  0  0
   15.8580   20.7370   -0.9640 H   0  0  0  0  0  0  0  0  0  0  0  0
   16.4050   19.5590    0.2680 H   0  0  0  0  0  0  0  0  0  0  0  0
   17.7010   19.9940   -2.5430 H   0  0  0  0  0  0  0  0  0  0  0  0
   18.2590   20.5060   -0.9290 H   0  0  0  0  0  0  0  0  0  0  0  0
   18.3110   18.0590   -0.2220 H   0  0  0  0  0  0  0  0  0  0  0  0
   19.6070   18.6040   -1.3340 H   0  0  0  0  0  0  0  0  0  0  0  0
   17.1130   17.4440   -2.5810 H   0  0  0  0  0  0  0  0  0  0  0  0
   18.7260   17.5350   -3.2710 H   0  0  0  0  0  0  0  0  0  0  0  0
   17.7590   15.2810   -2.5770 H   0  0  0  0  0  0  0  0  0  0  0  0
   17.8020   15.7570   -0.8640 H   0  0  0  0  0  0  0  0  0  0  0  0
   19.5680   14.1530   -1.6010 H   0  0  0  0  0  0  0  0  0  0  0  0
   20.1640   15.3150   -2.8280 H   0  0  0  0  0  0  0  0  0  0  0  0
   21.6590   15.1410   -0.9130 H   0  0  0  0  0  0  0  0  0  0  0  0
   21.0030   16.8080   -0.9840 H   0  0  0  0  0  0  0  0  0  0  0  0
   20.0120   14.5220    0.8640 H   0  0  0  0  0  0  0  0  0  0  0  0
   21.0960   15.8780    1.3450 H   0  0  0  0  0  0  0  0  0  0  0  0
   19.3950   16.2220    0.8700 H   0  0  0  0  0  0  0  0  0  0  0  0
  2  1  1  0  0  0  0
  2  6  1  6  0  0  0
  3  2  1  0  0  0  0
  3  4  1  6  0  0  0
  5  4  1  0  0  0  0
  6  5  1  0  0  0  0
  7  3  1  0  0  0  0
  7 11  1  1  0  0  0
  8  1  1  0  0  0  0
  8  7  1  0  0  0  0
  8  9  1  1  0  0  0
 10  9  1  6  0  0  0
 11 10  1  0  0  0  0
 12  5  1  0  0  0  0
 13  6  1  0  0  0  0
 14  9  1  0  0  0  0
 16 10  1  0  0  0  0
 16 15  1  6  0  0  0
 17 16  1  0  0  0  0
 17 18  1  1  0  0  0
 19 18  1  0  0  0  0
 20 19  1  0  0  0  0
 21 17  1  0  0  0  0
 21 20  1  6  0  0  0
 22 21  1  0  0  0  0
 23 15  1  0  0  0  0
 23 22  1  0  0  0  0
 24 15  1  0  0  0  0
 25 22  1  0  0  0  0
 26  1  1  0  0  0  0
 27 26  1  0  0  0  0
 28 27  1  0  0  0  0
 29 28  1  0  0  0  0
 30 29  1  0  0  0  0
 31 30  1  0  0  0  0
 32 31  1  0  0  0  0
 33 32  1  0  0  0  0
 34 33  1  0  0  0  0
 35 34  1  0  0  0  0
 36 35  1  0  0  0  0
 37 36  1  0  0  0  0
 38 37  1  0  0  0  0
 39 38  1  0  0  0  0
 40 39  1  0  0  0  0
 41 40  1  0  0  0  0
 42 26  1  0  0  0  0
 43 26  1  0  0  0  0
 44 27  1  0  0  0  0
 45 27  1  0  0  0  0
 46 28  1  0  0  0  0
 47 28  1  0  0  0  0
 48 29  1  0  0  0  0
 49 29  1  0  0  0  0
 50 30  1  0  0  0  0
 51 30  1  0  0  0  0
 52 31  1  0  0  0  0
 53 31  1  0  0  0  0
 54 32  1  0  0  0  0
 55 32  1  0  0  0  0
 56 33  1  0  0  0  0
 57 33  1  0  0  0  0
 58 34  1  0  0  0  0
 59 34  1  0  0  0  0
 60 35  1  0  0  0  0
 61 35  1  0  0  0  0
 62 36  1  0  0  0  0
 63 36  1  0  0  0  0
 64 37  1  0  0  0  0
 65 37  1  0  0  0  0
 66 38  1  0  0  0  0
 67 38  1  0  0  0  0
 68 39  1  0  0  0  0
 69 39  1  0  0  0  0
 70 40  1  0  0  0  0
 71 40  1  0  0  0  0
 72 41  1  0  0  0  0
 73 41  1  0  0  0  0
 74 41  1  0  0  0  0
 75  1  1  0  0  0  0
 76 75  1  0  0  0  0
 77 76  1  0  0  0  0
 78 77  1  0  0  0  0
 79 78  1  0  0  0  0
 80 79  1  0  0  0  0
 81 80  1  0  0  0  0
 82 81  1  0  0  0  0
 83 82  1  0  0  0  0
 84 83  1  0  0  0  0
 85 84  1  0  0  0  0
 86 85  1  0  0  0  0
 87 86  1  0  0  0  0
 88 87  1  0  0  0  0
 89 88  1  0  0  0  0
 90 89  1  0  0  0  0
 91 75  1  0  0  0  0
 92 75  1  0  0  0  0
 93 76  1  0  0  0  0
 94 76  1  0  0  0  0
 95 77  1  0  0  0  0
 96 77  1  0  0  0  0
 97 78  1  0  0  0  0
 98 78  1  0  0  0  0
 99 79  1  0  0  0  0
100 79  1  0  0  0  0
101 80  1  0  0  0  0
102 80  1  0  0  0  0
103 81  1  0  0  0  0
104 81  1  0  0  0  0
105 82  1  0  0  0  0
106 82  1  0  0  0  0
107 83  1  0  0  0  0
108 83  1  0  0  0  0
109 84  1  0  0  0  0
110 84  1  0  0  0  0
111 85  1  0  0  0  0
112 85  1  0  0  0  0
113 86  1  0  0  0  0
114 86  1  0  0  0  0
115 87  1  0  0  0  0
116 87  1  0  0  0  0
117 88  1  0  0  0  0
118 88  1  0  0  0  0
119 89  1  0  0  0  0
120 89  1  0  0  0  0
121 90  1  0  0  0  0
122 90  1  0  0  0  0
123 90  1  0  0  0  0
M  END
$$$$
