Compound
 OpenBabel01182312163D

113115  0  0  1  0  0  0  0  0999 V2000
    0.2161    2.0939   -1.7880 C   0  0  0  0  0  0  0  0  0  0  0  0
    1.0867    0.8899   -2.2445 C   0  0  0  0  0  0  0  0  0  0  0  0
    2.0101    0.3040   -1.1557 C   0  0  0  0  0  0  0  0  0  0  0  0
    2.8079   -0.9134   -1.6543 C   0  0  0  0  0  0  0  0  0  0  0  0
    4.0009   -0.5162   -2.5411 C   0  0  0  0  0  0  0  0  0  0  0  0
    4.8005   -1.7347   -3.0328 C   0  0  0  0  0  0  0  0  0  0  0  0
    5.6163   -2.4026   -1.9147 C   0  0  0  0  0  0  0  0  0  0  0  0
    6.5350   -3.4961   -2.4807 C   0  0  0  0  0  0  0  0  0  0  0  0
    7.1936   -4.3522   -1.3822 C   0  0  0  0  0  0  0  0  0  0  0  0
    8.1013   -3.5741   -0.4112 C   0  0  0  0  0  0  0  0  0  0  0  0
    9.2885   -2.8977   -1.1155 C   0  0  0  0  0  0  0  0  0  0  0  0
   10.3598   -2.3913   -0.1348 C   0  0  0  0  0  0  0  0  0  0  0  0
    9.8898   -1.2133    0.7454 C   0  0  0  0  0  0  0  0  0  0  0  0
    9.5051   -1.6645    2.1661 C   0  0  0  0  0  0  0  0  0  0  0  0
    8.9106   -0.5254    3.0101 C   0  0  0  0  0  0  0  0  0  0  0  0
    9.9552    0.5345    3.3927 C   0  0  0  0  0  0  0  0  0  0  0  0
    9.3737    1.5604    4.3618 C   0  0  0  0  0  0  0  0  0  0  0  0
   -0.8191    1.7071   -0.6906 C   0  0  0  0  0  0  0  0  0  0  0  0
   -1.7049    2.8479   -0.1323 C   0  0  0  0  0  0  0  0  0  0  0  0
   -2.9209    3.1784   -1.0179 C   0  0  0  0  0  0  0  0  0  0  0  0
   -3.9914    4.0125   -0.2864 C   0  0  0  0  0  0  0  0  0  0  0  0
   -4.7952    3.2553    0.7902 C   0  0  0  0  0  0  0  0  0  0  0  0
   -5.6712    2.1310    0.2074 C   0  0  0  0  0  0  0  0  0  0  0  0
   -6.5094    1.4153    1.2799 C   0  0  0  0  0  0  0  0  0  0  0  0
   -7.7356    2.2333    1.7227 C   0  0  0  0  0  0  0  0  0  0  0  0
   -8.5512    1.5362    2.8283 C   0  0  0  0  0  0  0  0  0  0  0  0
   -9.2146    0.2114    2.4089 C   0  0  0  0  0  0  0  0  0  0  0  0
  -10.2575    0.3906    1.2938 C   0  0  0  0  0  0  0  0  0  0  0  0
  -11.0814   -0.8839    1.0397 C   0  0  0  0  0  0  0  0  0  0  0  0
  -10.2544   -2.0342    0.4238 C   0  0  0  0  0  0  0  0  0  0  0  0
   -9.8768   -3.1044    1.4611 C   0  0  0  0  0  0  0  0  0  0  0  0
   -8.9471   -4.1596    0.8504 C   0  0  0  0  0  0  0  0  0  0  0  0
   -8.5676   -5.2223    1.8789 C   0  0  0  0  0  0  0  0  0  0  0  0
   -0.4530    2.6895   -3.0151 C   0  0  1  0  0  3  0  0  0  0  0  0
   -0.0286    3.9539   -3.2695 C   0  0  1  0  0  3  0  0  0  0  0  0
   -0.8197    4.6252   -4.5805 S   0  0  0  0  0  0  0  0  0  0  0  0
   -1.7283    3.2083   -4.8670 C   0  0  0  0  0  3  0  0  0  0  0  0
   -1.4113    2.2287   -3.9166 C   0  0  0  0  0  3  0  0  0  0  0  0
    0.9247    4.3282   -2.2718 C   0  0  1  0  0  3  0  0  0  0  0  0
    1.0695    3.2945   -1.3978 C   0  0  1  0  0  3  0  0  0  0  0  0
    1.7843    3.6353   -0.2492 C   0  0  0  0  0  3  0  0  0  0  0  0
    2.1938    4.9742   -0.2775 C   0  0  0  0  0  3  0  0  0  0  0  0
    1.6188    5.7333   -1.6922 S   0  0  0  0  0  0  0  0  0  0  0  0
    0.4142    0.0850   -2.6152 H   0  0  0  0  0  0  0  0  0  0  0  0
    1.7145    1.2138   -3.1026 H   0  0  0  0  0  0  0  0  0  0  0  0
    1.3986   -0.0407   -0.2970 H   0  0  0  0  0  0  0  0  0  0  0  0
    2.7148    1.0778   -0.7848 H   0  0  0  0  0  0  0  0  0  0  0  0
    2.1370   -1.6095   -2.2048 H   0  0  0  0  0  0  0  0  0  0  0  0
    3.1862   -1.4518   -0.7598 H   0  0  0  0  0  0  0  0  0  0  0  0
    3.6273    0.0216   -3.4370 H   0  0  0  0  0  0  0  0  0  0  0  0
    4.6739    0.1771   -1.9902 H   0  0  0  0  0  0  0  0  0  0  0  0
    5.4994   -1.3886   -3.8261 H   0  0  0  0  0  0  0  0  0  0  0  0
    4.1109   -2.4763   -3.4927 H   0  0  0  0  0  0  0  0  0  0  0  0
    6.2321   -1.6313   -1.4047 H   0  0  0  0  0  0  0  0  0  0  0  0
    4.9278   -2.8605   -1.1744 H   0  0  0  0  0  0  0  0  0  0  0  0
    5.9331   -4.1774   -3.1226 H   0  0  0  0  0  0  0  0  0  0  0  0
    7.3132   -3.0398   -3.1291 H   0  0  0  0  0  0  0  0  0  0  0  0
    6.3958   -4.8560   -0.7940 H   0  0  0  0  0  0  0  0  0  0  0  0
    7.7907   -5.1544   -1.8695 H   0  0  0  0  0  0  0  0  0  0  0  0
    8.4891   -4.2980    0.3381 H   0  0  0  0  0  0  0  0  0  0  0  0
    7.5023   -2.8181    0.1373 H   0  0  0  0  0  0  0  0  0  0  0  0
    8.9294   -2.0462   -1.7322 H   0  0  0  0  0  0  0  0  0  0  0  0
    9.7686   -3.6309   -1.7989 H   0  0  0  0  0  0  0  0  0  0  0  0
   10.7364   -3.2326    0.4860 H   0  0  0  0  0  0  0  0  0  0  0  0
   11.2237   -2.0450   -0.7438 H   0  0  0  0  0  0  0  0  0  0  0  0
   10.7291   -0.4886    0.8226 H   0  0  0  0  0  0  0  0  0  0  0  0
    9.0374   -0.6815    0.2689 H   0  0  0  0  0  0  0  0  0  0  0  0
   10.3975   -2.0852    2.6821 H   0  0  0  0  0  0  0  0  0  0  0  0
    8.7487   -2.4740    2.1065 H   0  0  0  0  0  0  0  0  0  0  0  0
    8.0702   -0.0466    2.4602 H   0  0  0  0  0  0  0  0  0  0  0  0
    8.4956   -0.9712    3.9410 H   0  0  0  0  0  0  0  0  0  0  0  0
   10.8295    0.0463    3.8737 H   0  0  0  0  0  0  0  0  0  0  0  0
   10.3026    1.0696    2.4854 H   0  0  0  0  0  0  0  0  0  0  0  0
   10.1451    2.3230    4.6016 H   0  0  0  0  0  0  0  0  0  0  0  0
    8.5000    2.0729    3.9052 H   0  0  0  0  0  0  0  0  0  0  0  0
    9.0598    1.0656    5.3056 H   0  0  0  0  0  0  0  0  0  0  0  0
   -1.4631    0.8801   -1.0619 H   0  0  0  0  0  0  0  0  0  0  0  0
   -0.2655    1.3044    0.1823 H   0  0  0  0  0  0  0  0  0  0  0  0
   -2.0621    2.5092    0.8605 H   0  0  0  0  0  0  0  0  0  0  0  0
   -1.1113    3.7691    0.0470 H   0  0  0  0  0  0  0  0  0  0  0  0
   -2.5727    3.7925   -1.8718 H   0  0  0  0  0  0  0  0  0  0  0  0
   -3.3658    2.2564   -1.4442 H   0  0  0  0  0  0  0  0  0  0  0  0
   -3.4990    4.8891    0.1878 H   0  0  0  0  0  0  0  0  0  0  0  0
   -4.7029    4.4150   -1.0411 H   0  0  0  0  0  0  0  0  0  0  0  0
   -4.1233    2.8467    1.5728 H   0  0  0  0  0  0  0  0  0  0  0  0
   -5.4467    4.0010    1.2914 H   0  0  0  0  0  0  0  0  0  0  0  0
   -5.0151    1.3637   -0.2554 H   0  0  0  0  0  0  0  0  0  0  0  0
   -6.3359    2.5349   -0.5880 H   0  0  0  0  0  0  0  0  0  0  0  0
   -6.8543    0.4583    0.8369 H   0  0  0  0  0  0  0  0  0  0  0  0
   -5.8729    1.1723    2.1598 H   0  0  0  0  0  0  0  0  0  0  0  0
   -7.3978    3.2085    2.1324 H   0  0  0  0  0  0  0  0  0  0  0  0
   -8.3825    2.4572    0.8475 H   0  0  0  0  0  0  0  0  0  0  0  0
   -9.3404    2.2357    3.1809 H   0  0  0  0  0  0  0  0  0  0  0  0
   -7.8859    1.3409    3.6972 H   0  0  0  0  0  0  0  0  0  0  0  0
   -8.4403   -0.5161    2.0966 H   0  0  0  0  0  0  0  0  0  0  0  0
   -9.7184   -0.2121    3.3050 H   0  0  0  0  0  0  0  0  0  0  0  0
   -9.7618    0.6918    0.3473 H   0  0  0  0  0  0  0  0  0  0  0  0
  -10.9580    1.2050    1.5814 H   0  0  0  0  0  0  0  0  0  0  0  0
  -11.8891   -0.6146    0.3237 H   0  0  0  0  0  0  0  0  0  0  0  0
  -11.5868   -1.2044    1.9780 H   0  0  0  0  0  0  0  0  0  0  0  0
   -9.3375   -1.6376   -0.0666 H   0  0  0  0  0  0  0  0  0  0  0  0
  -10.8609   -2.5215   -0.3703 H   0  0  0  0  0  0  0  0  0  0  0  0
  -10.8036   -3.5974    1.8270 H   0  0  0  0  0  0  0  0  0  0  0  0
   -9.3720   -2.6344    2.3300 H   0  0  0  0  0  0  0  0  0  0  0  0
   -9.4527   -4.6529   -0.0087 H   0  0  0  0  0  0  0  0  0  0  0  0
   -8.0177   -3.6732    0.4804 H   0  0  0  0  0  0  0  0  0  0  0  0
   -8.0399   -4.7572    2.7400 H   0  0  0  0  0  0  0  0  0  0  0  0
   -9.4768   -5.7465    2.2453 H   0  0  0  0  0  0  0  0  0  0  0  0
   -7.8922   -5.9698    1.4118 H   0  0  0  0  0  0  0  0  0  0  0  0
   -2.4565    3.0876   -5.6582 H   0  0  0  0  0  0  0  0  0  0  0  0
   -1.8658    1.2481   -3.8744 H   0  0  0  0  0  0  0  0  0  0  0  0
    1.9507    2.9692    0.5869 H   0  0  0  0  0  0  0  0  0  0  0  0
    2.7397    5.4694    0.5143 H   0  0  0  0  0  0  0  0  0  0  0  0
  2  1  1  0  0  0  0
  3  2  1  0  0  0  0
  4  3  1  0  0  0  0
  5  4  1  0  0  0  0
  6  5  1  0  0  0  0
  7  6  1  0  0  0  0
  8  7  1  0  0  0  0
  9  8  1  0  0  0  0
 10  9  1  0  0  0  0
 11 10  1  0  0  0  0
 12 11  1  0  0  0  0
 13 12  1  0  0  0  0
 14 13  1  0  0  0  0
 15 14  1  0  0  0  0
 16 15  1  0  0  0  0
 17 16  1  0  0  0  0
 18  1  1  0  0  0  0
 19 18  1  0  0  0  0
 20 19  1  0  0  0  0
 21 20  1  0  0  0  0
 22 21  1  0  0  0  0
 23 22  1  0  0  0  0
 24 23  1  0  0  0  0
 25 24  1  0  0  0  0
 26 25  1  0  0  0  0
 27 26  1  0  0  0  0
 28 27  1  0  0  0  0
 29 28  1  0  0  0  0
 30 29  1  0  0  0  0
 31 30  1  0  0  0  0
 32 31  1  0  0  0  0
 33 32  1  0  0  0  0
 34  1  1  0  0  0  0
 34 38  1  6  0  0  0
 35 34  1  0  0  0  0
 35 36  1  1  0  0  0
 37 36  1  0  0  0  0
 38 37  1  0  0  0  0
 39 35  1  0  0  0  0
 39 43  1  6  0  0  0
 40  1  1  0  0  0  0
 40 39  1  0  0  0  0
 40 41  1  1  0  0  0
 42 41  1  0  0  0  0
 43 42  1  0  0  0  0
 44  2  1  0  0  0  0
 45  2  1  0  0  0  0
 46  3  1  0  0  0  0
 47  3  1  0  0  0  0
 48  4  1  0  0  0  0
 49  4  1  0  0  0  0
 50  5  1  0  0  0  0
 51  5  1  0  0  0  0
 52  6  1  0  0  0  0
 53  6  1  0  0  0  0
 54  7  1  0  0  0  0
 55  7  1  0  0  0  0
 56  8  1  0  0  0  0
 57  8  1  0  0  0  0
 58  9  1  0  0  0  0
 59  9  1  0  0  0  0
 60 10  1  0  0  0  0
 61 10  1  0  0  0  0
 62 11  1  0  0  0  0
 63 11  1  0  0  0  0
 64 12  1  0  0  0  0
 65 12  1  0  0  0  0
 66 13  1  0  0  0  0
 67 13  1  0  0  0  0
 68 14  1  0  0  0  0
 69 14  1  0  0  0  0
 70 15  1  0  0  0  0
 71 15  1  0  0  0  0
 72 16  1  0  0  0  0
 73 16  1  0  0  0  0
 74 17  1  0  0  0  0
 75 17  1  0  0  0  0
 76 17  1  0  0  0  0
 77 18  1  0  0  0  0
 78 18  1  0  0  0  0
 79 19  1  0  0  0  0
 80 19  1  0  0  0  0
 81 20  1  0  0  0  0
 82 20  1  0  0  0  0
 83 21  1  0  0  0  0
 84 21  1  0  0  0  0
 85 22  1  0  0  0  0
 86 22  1  0  0  0  0
 87 23  1  0  0  0  0
 88 23  1  0  0  0  0
 89 24  1  0  0  0  0
 90 24  1  0  0  0  0
 91 25  1  0  0  0  0
 92 25  1  0  0  0  0
 93 26  1  0  0  0  0
 94 26  1  0  0  0  0
 95 27  1  0  0  0  0
 96 27  1  0  0  0  0
 97 28  1  0  0  0  0
 98 28  1  0  0  0  0
 99 29  1  0  0  0  0
100 29  1  0  0  0  0
101 30  1  0  0  0  0
102 30  1  0  0  0  0
103 31  1  0  0  0  0
104 31  1  0  0  0  0
105 32  1  0  0  0  0
106 32  1  0  0  0  0
107 33  1  0  0  0  0
108 33  1  0  0  0  0
109 33  1  0  0  0  0
110 37  1  0  0  0  0
111 38  1  0  0  0  0
112 41  1  0  0  0  0
113 42  1  0  0  0  0
M  END
$$$$
