Compound
 OpenBabel01182312433D

123127  0  0  1  0  0  0  0  0999 V2000
    5.4980   13.2440    1.3170 C   0  0  0  0  0  0  0  0  0  0  0  0
    4.2200   14.2250    1.4020 C   0  0  2  0  0  3  0  0  0  0  0  0
    3.0890   13.3560    1.9460 C   0  0  1  0  0  3  0  0  0  0  0  0
    1.5020   14.1610    1.6200 S   0  0  0  0  0  0  0  0  0  0  0  0
    2.2340   14.6660    0.0770 C   0  0  0  0  0  3  0  0  0  0  0  0
    3.6270   14.7410    0.0980 C   0  0  0  0  0  3  0  0  0  0  0  0
    3.1730   12.1220    1.0950 C   0  0  1  0  0  3  0  0  0  0  0  0
    4.6030   12.0530    0.5120 C   0  0  2  0  0  3  0  0  0  0  0  0
    4.3940   10.6190   -0.0950 C   0  0  0  0  0  3  0  0  0  0  0  0
    3.4650    9.6080    0.6990 C   0  0  2  0  0  3  0  0  0  0  0  0
    2.6820   10.6070    1.9930 S   0  0  0  0  0  0  0  0  0  0  0  0
    1.6540   14.6280   -0.8380 H   0  0  0  0  0  0  0  0  0  0  0  0
    4.1450   14.6980   -0.8460 H   0  0  0  0  0  0  0  0  0  0  0  0
    4.3350   10.5470   -1.1760 H   0  0  0  0  0  0  0  0  0  0  0  0
    1.1290    8.2570    0.7790 C   0  0  0  0  0  3  0  0  0  0  0  0
    2.5050    8.4780    0.0520 C   0  0  2  0  0  3  0  0  0  0  0  0
    3.0950    7.0840   -0.3720 C   0  0  2  0  0  3  0  0  0  0  0  0
    2.3380    6.5850   -1.5250 N   0  0  0  0  0  2  0  0  0  0  0  0
    2.0100    4.8450   -1.3430 S   0  0  0  0  0  0  0  0  0  0  0  0
    3.0450    4.7030    0.0790 N   0  0  0  0  0  2  0  0  0  0  0  0
    3.0200    6.0020    0.7350 C   0  0  1  0  0  3  0  0  0  0  0  0
    1.7600    6.1290    1.6110 C   0  0  0  0  0  3  0  0  0  0  0  0
    0.7130    6.8480    0.9010 N   0  0  0  0  0  2  0  0  0  0  0  0
    0.3310    8.7960    0.2330 H   0  0  0  0  0  0  0  0  0  0  0  0
    1.4000    5.1390    1.9950 H   0  0  0  0  0  0  0  0  0  0  0  0
    5.7920   12.7830    2.9410 C   0  0  0  0  0  0  0  0  0  0  0  0
    5.9540   12.0970    4.4850 C   0  0  0  0  0  0  0  0  0  0  0  0
    5.6870   12.0460    6.1040 C   0  0  0  0  0  0  0  0  0  0  0  0
    6.6480   11.4720    7.2370 C   0  0  0  0  0  0  0  0  0  0  0  0
    6.5710   10.0300    7.9150 C   0  0  0  0  0  0  0  0  0  0  0  0
    7.4100    8.7810    7.4950 C   0  0  0  0  0  0  0  0  0  0  0  0
    8.8750    9.1390    7.1720 C   0  0  0  0  0  0  0  0  0  0  0  0
    8.8520    9.5990    5.7330 C   0  0  0  0  0  0  0  0  0  0  0  0
   10.0060   10.3770    5.1630 C   0  0  0  0  0  0  0  0  0  0  0  0
    9.6130   10.9410    3.7690 C   0  0  0  0  0  0  0  0  0  0  0  0
    9.1410    9.8840    2.7380 C   0  0  0  0  0  0  0  0  0  0  0  0
    7.6540    9.4530    2.8780 C   0  0  0  0  0  0  0  0  0  0  0  0
    7.2520    8.2630    2.0030 C   0  0  0  0  0  0  0  0  0  0  0  0
    6.5850    8.7190    0.7290 C   0  0  0  0  0  0  0  0  0  0  0  0
    7.3730    9.6370   -0.2110 C   0  0  0  0  0  0  0  0  0  0  0  0
    8.5800    8.9240   -0.7820 C   0  0  0  0  0  0  0  0  0  0  0  0
    5.6880   13.7680    3.3060 H   0  0  0  0  0  0  0  0  0  0  0  0
    4.8820   12.0210    2.8190 H   0  0  0  0  0  0  0  0  0  0  0  0
    4.9160   12.4740    4.6440 H   0  0  0  0  0  0  0  0  0  0  0  0
    6.0250   11.0400    4.3440 H   0  0  0  0  0  0  0  0  0  0  0  0
    5.5990   13.1250    6.4200 H   0  0  0  0  0  0  0  0  0  0  0  0
    4.7040   11.5430    6.3630 H   0  0  0  0  0  0  0  0  0  0  0  0
    7.6870   11.8400    7.1350 H   0  0  0  0  0  0  0  0  0  0  0  0
    6.2600   12.0470    8.1130 H   0  0  0  0  0  0  0  0  0  0  0  0
    6.9920   10.2110    8.9340 H   0  0  0  0  0  0  0  0  0  0  0  0
    5.5180    9.7190    8.0920 H   0  0  0  0  0  0  0  0  0  0  0  0
    6.9440    8.2150    6.6560 H   0  0  0  0  0  0  0  0  0  0  0  0
    7.4040    8.0790    8.3640 H   0  0  0  0  0  0  0  0  0  0  0  0
    9.2400    9.9050    7.8880 H   0  0  0  0  0  0  0  0  0  0  0  0
    9.5490    8.2520    7.2310 H   0  0  0  0  0  0  0  0  0  0  0  0
    8.7670    8.6510    5.1640 H   0  0  0  0  0  0  0  0  0  0  0  0
    7.9810   10.2520    5.5870 H   0  0  0  0  0  0  0  0  0  0  0  0
   10.2330   11.2410    5.8250 H   0  0  0  0  0  0  0  0  0  0  0  0
   10.9000    9.7220    5.0980 H   0  0  0  0  0  0  0  0  0  0  0  0
    8.8260   11.7260    3.8640 H   0  0  0  0  0  0  0  0  0  0  0  0
   10.5220   11.4410    3.3780 H   0  0  0  0  0  0  0  0  0  0  0  0
    9.8190    9.0090    2.7920 H   0  0  0  0  0  0  0  0  0  0  0  0
    9.2520   10.3410    1.7400 H   0  0  0  0  0  0  0  0  0  0  0  0
    7.3460    9.1280    3.8680 H   0  0  0  0  0  0  0  0  0  0  0  0
    7.0080   10.3230    2.6710 H   0  0  0  0  0  0  0  0  0  0  0  0
    6.4310    7.7170    2.5340 H   0  0  0  0  0  0  0  0  0  0  0  0
    8.0730    7.5340    1.8680 H   0  0  0  0  0  0  0  0  0  0  0  0
    6.1670    7.8540    0.1720 H   0  0  0  0  0  0  0  0  0  0  0  0
    5.7710    9.2840    1.1540 H   0  0  0  0  0  0  0  0  0  0  0  0
    6.7220    9.9430   -1.0560 H   0  0  0  0  0  0  0  0  0  0  0  0
    7.6640   10.5750    0.3040 H   0  0  0  0  0  0  0  0  0  0  0  0
    8.2410    8.0260   -1.3390 H   0  0  0  0  0  0  0  0  0  0  0  0
    9.1140    9.6090   -1.4690 H   0  0  0  0  0  0  0  0  0  0  0  0
    9.2650    8.6180    0.0340 H   0  0  0  0  0  0  0  0  0  0  0  0
    6.8830   14.3000    0.6360 C   0  0  0  0  0  0  0  0  0  0  0  0
    8.1060   15.6590    0.4760 C   0  0  0  0  0  0  0  0  0  0  0  0
    9.4710   16.6500   -0.2000 C   0  0  0  0  0  0  0  0  0  0  0  0
   10.8520   17.5920   -0.8680 C   0  0  0  0  0  0  0  0  0  0  0  0
   12.4470   18.2050   -0.4780 C   0  0  0  0  0  0  0  0  0  0  0  0
   13.3690   19.2650   -1.4660 C   0  0  0  0  0  0  0  0  0  0  0  0
   14.8470   20.0670   -1.2170 C   0  0  0  0  0  0  0  0  0  0  0  0
   16.3580   19.5690   -1.6030 C   0  0  0  0  0  0  0  0  0  0  0  0
   17.6300   20.5420   -1.3060 C   0  0  0  0  0  0  0  0  0  0  0  0
   19.1450   20.1210   -1.6540 C   0  0  0  0  0  0  0  0  0  0  0  0
   19.5720   18.7010   -1.2000 C   0  0  0  0  0  0  0  0  0  0  0  0
   19.0540   17.6710   -2.2230 C   0  0  0  0  0  0  0  0  0  0  0  0
   18.5450   16.3520   -1.6290 C   0  0  0  0  0  0  0  0  0  0  0  0
   19.5020   15.1560   -1.6720 C   0  0  0  0  0  0  0  0  0  0  0  0
   20.7560   15.2220   -0.8010 C   0  0  0  0  0  0  0  0  0  0  0  0
   20.4390   15.3120    0.6890 C   0  0  0  0  0  0  0  0  0  0  0  0
    6.4580   14.3870   -0.3900 H   0  0  0  0  0  0  0  0  0  0  0  0
    6.4540   15.0030    1.3830 H   0  0  0  0  0  0  0  0  0  0  0  0
    7.3520   16.4780    0.3180 H   0  0  0  0  0  0  0  0  0  0  0  0
    8.4630   15.6690    1.5240 H   0  0  0  0  0  0  0  0  0  0  0  0
    8.9010   16.8570   -1.1480 H   0  0  0  0  0  0  0  0  0  0  0  0
    9.2980   17.4720    0.5420 H   0  0  0  0  0  0  0  0  0  0  0  0
   11.0600   17.1180   -1.8390 H   0  0  0  0  0  0  0  0  0  0  0  0
   10.3740   18.5790   -1.1070 H   0  0  0  0  0  0  0  0  0  0  0  0
   12.3640   18.7670    0.4750 H   0  0  0  0  0  0  0  0  0  0  0  0
   13.1140   17.3400   -0.3050 H   0  0  0  0  0  0  0  0  0  0  0  0
   12.6880   20.1420   -1.5660 H   0  0  0  0  0  0  0  0  0  0  0  0
   13.4520   18.8480   -2.4900 H   0  0  0  0  0  0  0  0  0  0  0  0
   14.7960   20.9730   -1.8770 H   0  0  0  0  0  0  0  0  0  0  0  0
   14.8780   20.4890   -0.1920 H   0  0  0  0  0  0  0  0  0  0  0  0
   16.5640   18.6390   -1.0490 H   0  0  0  0  0  0  0  0  0  0  0  0
   16.3790   19.3800   -2.6980 H   0  0  0  0  0  0  0  0  0  0  0  0
   17.5040   21.5310   -1.8080 H   0  0  0  0  0  0  0  0  0  0  0  0
   17.6440   20.7460   -0.2160 H   0  0  0  0  0  0  0  0  0  0  0  0
   19.4000   20.2250   -2.7360 H   0  0  0  0  0  0  0  0  0  0  0  0
   19.8260   20.8480   -1.1420 H   0  0  0  0  0  0  0  0  0  0  0  0
   19.1680   18.5630   -0.1770 H   0  0  0  0  0  0  0  0  0  0  0  0
   20.6820   18.5770   -1.1370 H   0  0  0  0  0  0  0  0  0  0  0  0
   18.1560   18.1100   -2.6730 H   0  0  0  0  0  0  0  0  0  0  0  0
   19.7350   17.5490   -3.0970 H   0  0  0  0  0  0  0  0  0  0  0  0
   17.7110   16.0350   -2.2920 H   0  0  0  0  0  0  0  0  0  0  0  0
   18.0920   16.5210   -0.6280 H   0  0  0  0  0  0  0  0  0  0  0  0
   18.9150   14.2620   -1.3630 H   0  0  0  0  0  0  0  0  0  0  0  0
   19.8130   15.0010   -2.7280 H   0  0  0  0  0  0  0  0  0  0  0  0
   21.3160   14.2750   -0.9710 H   0  0  0  0  0  0  0  0  0  0  0  0
   21.4040   16.0680   -1.1100 H   0  0  0  0  0  0  0  0  0  0  0  0
   19.7840   14.4680    0.9970 H   0  0  0  0  0  0  0  0  0  0  0  0
   21.3850   15.2510    1.2670 H   0  0  0  0  0  0  0  0  0  0  0  0
   19.9390   16.2730    0.9240 H   0  0  0  0  0  0  0  0  0  0  0  0
  2  1  1  0  0  0  0
  2  6  1  6  0  0  0
  3  2  1  0  0  0  0
  3  4  1  6  0  0  0
  5  4  1  0  0  0  0
  6  5  1  0  0  0  0
  7  3  1  0  0  0  0
  7 11  1  1  0  0  0
  8  1  1  0  0  0  0
  8  7  1  0  0  0  0
  8  9  1  1  0  0  0
 10  9  1  1  0  0  0
 11 10  1  0  0  0  0
 12  5  1  0  0  0  0
 13  6  1  0  0  0  0
 14  9  1  0  0  0  0
 16 10  1  0  0  0  0
 16 15  1  1  0  0  0
 17 16  1  0  0  0  0
 17 18  1  6  0  0  0
 19 18  1  0  0  0  0
 20 19  1  0  0  0  0
 21 17  1  0  0  0  0
 21 20  1  1  0  0  0
 22 21  1  0  0  0  0
 23 15  1  0  0  0  0
 23 22  1  0  0  0  0
 24 15  1  0  0  0  0
 25 22  1  0  0  0  0
 26  1  1  0  0  0  0
 27 26  1  0  0  0  0
 28 27  1  0  0  0  0
 29 28  1  0  0  0  0
 30 29  1  0  0  0  0
 31 30  1  0  0  0  0
 32 31  1  0  0  0  0
 33 32  1  0  0  0  0
 34 33  1  0  0  0  0
 35 34  1  0  0  0  0
 36 35  1  0  0  0  0
 37 36  1  0  0  0  0
 38 37  1  0  0  0  0
 39 38  1  0  0  0  0
 40 39  1  0  0  0  0
 41 40  1  0  0  0  0
 42 26  1  0  0  0  0
 43 26  1  0  0  0  0
 44 27  1  0  0  0  0
 45 27  1  0  0  0  0
 46 28  1  0  0  0  0
 47 28  1  0  0  0  0
 48 29  1  0  0  0  0
 49 29  1  0  0  0  0
 50 30  1  0  0  0  0
 51 30  1  0  0  0  0
 52 31  1  0  0  0  0
 53 31  1  0  0  0  0
 54 32  1  0  0  0  0
 55 32  1  0  0  0  0
 56 33  1  0  0  0  0
 57 33  1  0  0  0  0
 58 34  1  0  0  0  0
 59 34  1  0  0  0  0
 60 35  1  0  0  0  0
 61 35  1  0  0  0  0
 62 36  1  0  0  0  0
 63 36  1  0  0  0  0
 64 37  1  0  0  0  0
 65 37  1  0  0  0  0
 66 38  1  0  0  0  0
 67 38  1  0  0  0  0
 68 39  1  0  0  0  0
 69 39  1  0  0  0  0
 70 40  1  0  0  0  0
 71 40  1  0  0  0  0
 72 41  1  0  0  0  0
 73 41  1  0  0  0  0
 74 41  1  0  0  0  0
 75  1  1  0  0  0  0
 76 75  1  0  0  0  0
 77 76  1  0  0  0  0
 78 77  1  0  0  0  0
 79 78  1  0  0  0  0
 80 79  1  0  0  0  0
 81 80  1  0  0  0  0
 82 81  1  0  0  0  0
 83 82  1  0  0  0  0
 84 83  1  0  0  0  0
 85 84  1  0  0  0  0
 86 85  1  0  0  0  0
 87 86  1  0  0  0  0
 88 87  1  0  0  0  0
 89 88  1  0  0  0  0
 90 89  1  0  0  0  0
 91 75  1  0  0  0  0
 92 75  1  0  0  0  0
 93 76  1  0  0  0  0
 94 76  1  0  0  0  0
 95 77  1  0  0  0  0
 96 77  1  0  0  0  0
 97 78  1  0  0  0  0
 98 78  1  0  0  0  0
 99 79  1  0  0  0  0
100 79  1  0  0  0  0
101 80  1  0  0  0  0
102 80  1  0  0  0  0
103 81  1  0  0  0  0
104 81  1  0  0  0  0
105 82  1  0  0  0  0
106 82  1  0  0  0  0
107 83  1  0  0  0  0
108 83  1  0  0  0  0
109 84  1  0  0  0  0
110 84  1  0  0  0  0
111 85  1  0  0  0  0
112 85  1  0  0  0  0
113 86  1  0  0  0  0
114 86  1  0  0  0  0
115 87  1  0  0  0  0
116 87  1  0  0  0  0
117 88  1  0  0  0  0
118 88  1  0  0  0  0
119 89  1  0  0  0  0
120 89  1  0  0  0  0
121 90  1  0  0  0  0
122 90  1  0  0  0  0
123 90  1  0  0  0  0
M  END
$$$$
